*----------------------------------------------------------------------
* SPICE Netlist Generated by TDK Corporation
* Copyright(C) 2015 TDK Corporation.
* All Rights Reserved.
*----------------------------------------------------------------------
* TDK P/N: C3225X7R2A105K200AA (Multilayer Ceramic Chip Capacitor)
* Property: C=1uF
* Size(LxWxT): 3.2x2.5x2mm, 0.126x0.098x0.079inches
* Model Type: Precise Model
* Model Generated on June 29, 2015
*----------------------------------------------------------------------
* Terms and conditions regarding TDK Simulation Models:
* 1)This simulation model is being provided solely for informational
*   purposes. Please refer to the specifications of the products in
*   terms of detailed characteristics of such products.
* 2)In no event shall TDK Corporation of any of its subsidiaries be
*   liable for any loss or damage arising, directly or indirectly,
*   from any information contained in this simulation model, including,
*   but not limited to loss or damages arising from any inaccuracies,
*   omissions or errors in connection with such information.
* 3)Any and all copyrights on this simulation model are owned by
*   TDK Corporation.  Duplication or redistribution of this simulation
*   model without prior written permission from TDK Corporation
*   is prohibited.
* 4)This simulation model is subject to any modification or change
*   without any prior notice.
* 5)Neither TDK Corporation nor any of its subsidiaries shall make any
*   warranty, express or implied, including but not limited to the
*   correctness, implied warranties of merchantability and fitness for
*   a particular purpose with respect to this simulation models.
* 6)The use of this simulation model shall be deemed to have consented
*   to the terms and conditions hereof.
*----------------------------------------------------------------------
* External Node Assignments:
*
*  n1 ---| |--- n2
*
*----------------------------------------------------------------------
* Applicable Conditions:
*   Temperature = 25 degC
*   DC Bias Voltage = 0 V
*   Small Signal Operation
*----------------------------------------------------------------------
.SUBCKT C3225X7R2A105K200AA_p n1 n2
C1 n1 11 9.80148135E-07
C2 n1 12 5.92100697E-09
C3 n1 13 5.92100697E-09
C4 n1 14 5.92100697E-09
C5 n1 15 5.92100697E-09
C6 n1 16 5.92100697E-09
C7 n1 17 5.92100697E-09
L1 n2 21 6.00000000E-10
R1 11 21 5.70991426E-03
R2 11 12 1.33564504E+02
R3 11 13 8.52874685E+02
R4 11 14 5.44563482E+03
R5 11 15 3.47681268E+04
R6 11 16 2.21964703E+05
R7 11 17 1.41695723E+06
R8 n1 11 5.00000000E+08
.ENDS C3225X7R2A105K200AA_p
*----------------------------------------------------------------------
